*INCLUDE, INPUT=all.msh
*INCLUDE, INPUT=fixed.nam
*INCLUDE, INPUT=interface.nam
*MATERIAL, Name=EL
*ELASTIC
 2560000, 0.3
*DENSITY
 1200.0
*SOLID SECTION, Elset=Eall, Material=EL
*STEP,NLGEOM,INC=1000000
*DYNAMIC,DIRECT
 0.0001,1.0
*BOUNDARY
 Nfixed,1,3,0
*CLOAD
 Ninterface,1,0.0
 Ninterface,2,0.0
 Ninterface,3,0.0
*RESTART, WRITE,FREQUENCY=1 
*NODE FILE
 U
*EL FILE
 S, E
*END STEP
